pyVM/case33bw_dcs.py
"""File created: 2017-12-11 10:47:35

MODIFIED LOADs ACCORDING TO RTDS PF
"""


from numpy import array
def case33bw_dcs():
	ppc = {"version": '2'}
	ppc["baseMVA"] = 100.0
	ppc["bus"] = array([
		[1.0, 3.0, 0.0, 0.0, 0.0, 0.0, 1.0, 1.0, 0.0, 12.66, 1.0, 1.0, 1.0],
		[2.0, 1.0, 1.0, 0.6, 0.0, 0.0, 1.0, 1.0, 0.0, 12.66, 1.0, 1.1, 0.9],
		[3.0, 1.0, 0.9, 0.4, 0.0, 0.0, 1.0, 1.0, 0.0, 12.66, 1.0, 1.1, 0.9],
		[4.0, 1.0, 0.59, 0.3, 0.0, 0.0, 1.0, 1.0, 0.0, 12.66, 1.0, 1.1, 0.9],
		[5.0, 1.0, 0.57, 0.29, 0.0, 0.0, 1.0, 1.0, 0.0, 12.66, 1.0, 1.1, 0.9],
		[6.0, 1.0, 0.52, 0.17, 0.0, 0.0, 1.0, 1.0, 0.0, 12.66, 1.0, 1.1, 0.9],
		[7.0, 1.0, 0.17, 0.087, 0.0, 0.0, 1.0, 1.0, 0.0, 12.66, 1.0, 1.1, 0.9],
		[8.0, 1.0, 0.4, 0.2, 0.0, 0.0, 1.0, 1.0, 0.0, 12.66, 1.0, 1.1, 0.9],
		[9.0, 1.0, 0.0, 0.0, 0.0, 0.0, 1.0, 1.0, 0.0, 12.66, 1.0, 1.1, 0.9],
		[10.0, 1.0, 4.265, 2.132, 0.0, 0.0, 1.0, 1.0, 0.0, 12.66, 1.0, 1.1, 0.9]
	])

	ppc["gen"] = array([
		[1.0, 0.0, 0.0,10.0,-10.0, 1.0, 100.0, 1.0, 10.0, 0.0, 0.0, 0.0, 0.0, 0.0, 0.0, 0.0, 0.0, 0.0, 0.0, 0.0, 0.0],
		[5.0, 0.0, 0.0, 1.5, -1.5, 1.0, 100.0, 1.0, 3.0, 0.0, 0.0, 0.0, 0.0, 0.0, 0.0, 0.0, 0.0, 0.0, 0.0, 0.0, 0.0],
		[7.0, 0.0, 0.0, 2, 	   -2, 1.0, 100.0, 1.0, 5  , 0.0, 0.0, 0.0, 0.0, 0.0, 0.0, 0.0, 0.0, 0.0, 0.0, 0.0, 0.0],
		[9.0, 0.0, 0.0, 0.1, -0.1, 1.0, 100.0, 1.0, 0.5, 0.0, 0.0, 0.0, 0.0, 0.0, 0.0, 0.0, 0.0, 0.0, 0.0, 0.0, 0.0],
		[8.0, 0.0, 0.0, 0.0, -0.1, 1.0, 100.0, 1.0, 0.0, -0.5, 0.0, 0.0, 0.0, 0.0, 0.0, 0.0, 0.0, 0.0, 0.0, 0.0, 0.0]
	])

	ppc["branch"] = array([
		[1.0, 2.0, 0.0576, 0.029376, 0.0, 9900, 0.0, 0.0, 0.0, 0.0, 1.0, -360.0, 360.0],
		[2.0, 3.0, 0.3076, 0.156876, 0.0, 9900, 0.0, 0.0, 0.0, 0.0, 1.0, -360.0, 360.0],
		[3.0, 4.0, 0.2284, 0.116484, 0.0, 9900, 0.0, 0.0, 0.0, 0.0, 1.0, -360.0, 360.0],
		[4.0, 5.0, 0.2378, 0.121278, 0.0, 9900, 0.0, 0.0, 0.0, 0.0, 1.0, -360.0, 360.0],
		[5.0, 6.0, 0.511, 0.442015, 0.0, 9900, 0.0, 0.0, 0.0, 0.0, 1.0, -360.0, 360.0],
		[6.0, 7.0, 0.1168, 0.386024, 0.0, 9900, 0.0, 0.0, 0.0, 0.0, 1.0, -360.0, 360.0],
		[2.0, 8.0, 0.1024, 0.097792, 0.0, 9900, 0.0, 0.0, 0.0, 0.0, 1.0, -360.0, 360.0],
		[3.0, 9.0, 0.2816, 0.192896, 0.0, 9900, 0.0, 0.0, 0.0, 0.0, 1.0, -360.0, 360.0],
		[6.0, 10.0, 0.1266, 0.064566, 0.0, 9900, 0.0, 0.0, 0.0, 0.0, 1.0, -360.0, 360.0],
	])

	ppc["gencost"] = array([
		[2.0, 0.0, 0.0, 2.0, 20.0, 0.0],
		[2.0, 0.0, 0.0, 2.0, 2.0, 0.0],
		[2.0, 0.0, 0.0, 2.0, 25.0, 0.0],
		[2.0, 0.0, 0.0, 2.0, 1.0, 0.0],
		[2.0, 0.0, 0.0, 2.0, 50.0, 0.0]
	])


	return ppc

